
     RDKit          3D

  8  7  0  0  0  0  0  0  0  0999 V2000
   -0.9676   -0.0959    0.0712 C   0  0  0  0  0  0  0  0  0  0  0  0
    0.4574    0.2970   -0.0468 C   0  0  0  0  0  0  0  0  0  0  0  0
    0.7469    1.4819   -0.4142 O   0  0  0  0  0  0  0  0  0  0  0  0
    1.4669   -0.6262    0.2430 O   0  0  0  0  0  0  0  0  0  0  0  0
   -1.1980   -0.9883   -0.5504 H   0  0  0  0  0  0  0  0  0  0  0  0
   -1.2544   -0.3672    1.1101 H   0  0  0  0  0  0  0  0  0  0  0  0
   -1.6151    0.7227   -0.2383 H   0  0  0  0  0  0  0  0  0  0  0  0
    2.3639   -0.4241   -0.1746 H   0  0  0  0  0  0  0  0  0  0  0  0
  1  2  1  0
  2  3  2  0
  2  4  1  0
  1  5  1  0
  1  6  1  0
  1  7  1  0
  4  8  1  0
M  END
