
     RDKit          3D

 21 21  0  0  0  0  0  0  0  0999 V2000
    3.2398    1.5041   -0.3423 C   0  0  0  0  0  0  0  0  0  0  0  0
    2.2395    0.4820    0.0783 C   0  0  0  0  0  0  0  0  0  0  0  0
    2.6054   -0.4836    0.8018 O   0  0  0  0  0  0  0  0  0  0  0  0
    0.8900    0.6717   -0.2458 O   0  0  0  0  0  0  0  0  0  0  0  0
   -0.1183   -0.2987   -0.1284 C   0  0  0  0  0  0  0  0  0  0  0  0
    0.1687   -1.6638   -0.3267 C   0  0  0  0  0  0  0  0  0  0  0  0
   -0.8381   -2.6238   -0.2243 C   0  0  0  0  0  0  0  0  0  0  0  0
   -2.1443   -2.2371    0.0657 C   0  0  0  0  0  0  0  0  0  0  0  0
   -2.4513   -0.8877    0.2462 C   0  0  0  0  0  0  0  0  0  0  0  0
   -1.4501    0.0993    0.1473 C   0  0  0  0  0  0  0  0  0  0  0  0
   -1.8148    1.5274    0.3456 C   0  0  0  0  0  0  0  0  0  0  0  0
   -3.0140    1.8506    0.5644 O   0  0  0  0  0  0  0  0  0  0  0  0
   -0.8481    2.5281    0.2963 O   0  0  0  0  0  0  0  0  0  0  0  0
    4.2223    1.0225   -0.5318 H   0  0  0  0  0  0  0  0  0  0  0  0
    2.9002    2.0038   -1.2736 H   0  0  0  0  0  0  0  0  0  0  0  0
    3.3515    2.2636    0.4591 H   0  0  0  0  0  0  0  0  0  0  0  0
    1.1660   -1.9877   -0.5912 H   0  0  0  0  0  0  0  0  0  0  0  0
   -0.6062   -3.6696   -0.3796 H   0  0  0  0  0  0  0  0  0  0  0  0
   -2.9239   -2.9840    0.1431 H   0  0  0  0  0  0  0  0  0  0  0  0
   -3.4771   -0.6177    0.4639 H   0  0  0  0  0  0  0  0  0  0  0  0
   -1.0971    3.5006    0.4323 H   0  0  0  0  0  0  0  0  0  0  0  0
  1  2  1  0
  2  3  2  0
  2  4  1  0
  4  5  1  0
  5  6  2  0
  6  7  1  0
  7  8  2  0
  8  9  1  0
  9 10  2  0
 10 11  1  0
 11 12  2  0
 11 13  1  0
 10  5  1  0
  1 14  1  0
  1 15  1  0
  1 16  1  0
  6 17  1  0
  7 18  1  0
  8 19  1  0
  9 20  1  0
 13 21  1  0
M  END
