
     RDKit          3D

  4  3  0  0  0  0  0  0  0  0999 V2000
   -0.0045   -0.0023    0.2715 N   0  0  0  0  0  0  0  0  0  0  0  0
   -0.5228   -0.8345   -0.0916 H   0  0  0  0  0  0  0  0  0  0  0  0
   -0.4454    0.8823   -0.0905 H   0  0  0  0  0  0  0  0  0  0  0  0
    0.9727   -0.0455   -0.0894 H   0  0  0  0  0  0  0  0  0  0  0  0
  1  2  1  0
  1  3  1  0
  1  4  1  0
M  END
