
     RDKit          3D

  9  8  0  0  0  0  0  0  0  0999 V2000
   -0.9510    0.1106    0.0175 C   0  0  0  0  0  0  0  0  0  0  0  0
    0.4525   -0.4753   -0.0312 C   0  0  0  0  0  0  0  0  0  0  0  0
    1.2621    0.5293   -0.5862 O   0  0  0  0  0  0  0  0  0  0  0  0
   -1.6993   -0.5982    0.3992 H   0  0  0  0  0  0  0  0  0  0  0  0
   -1.1984    0.5272   -0.9687 H   0  0  0  0  0  0  0  0  0  0  0  0
   -0.8972    0.9824    0.7173 H   0  0  0  0  0  0  0  0  0  0  0  0
    0.7240   -0.6960    1.0168 H   0  0  0  0  0  0  0  0  0  0  0  0
    0.5141   -1.3801   -0.6537 H   0  0  0  0  0  0  0  0  0  0  0  0
    1.7932    1.0002    0.0890 H   0  0  0  0  0  0  0  0  0  0  0  0
  1  2  1  0
  2  3  1  0
  1  4  1  0
  1  5  1  0
  1  6  1  0
  2  7  1  0
  2  8  1  0
  3  9  1  0
M  END
