
     RDKit          3D

  9  8  0  0  0  0  0  0  0  0999 V2000
   -0.8934   -0.2628    0.1251 C   0  0  0  0  0  0  0  0  0  0  0  0
    0.4331    0.4724    0.1462 C   0  0  0  0  0  0  0  0  0  0  0  0
    1.4233   -0.4797   -0.0938 O   0  0  0  0  0  0  0  0  0  0  0  0
   -1.6999    0.4774    0.0545 H   0  0  0  0  0  0  0  0  0  0  0  0
   -0.9377   -0.8990    1.0322 H   0  0  0  0  0  0  0  0  0  0  0  0
   -0.9623   -0.9472   -0.7525 H   0  0  0  0  0  0  0  0  0  0  0  0
    0.4067    1.2546   -0.6278 H   0  0  0  0  0  0  0  0  0  0  0  0
    0.6121    0.8562    1.1689 H   0  0  0  0  0  0  0  0  0  0  0  0
    1.6180   -0.4719   -1.0528 H   0  0  0  0  0  0  0  0  0  0  0  0
  1  2  1  0
  2  3  1  0
  1  4  1  0
  1  5  1  0
  1  6  1  0
  2  7  1  0
  2  8  1  0
  3  9  1  0
M  END
