
     RDKit          3D

  9  8  0  0  0  0  0  0  0  0999 V2000
   -2.2386    0.0030   -0.3901 O   0  0  0  0  0  0  0  0  0  0  0  0
   -0.8454    0.7638   -0.1007 S   0  0  0  0  0  0  0  0  0  0  0  0
   -1.0687    1.5758    1.1055 O   0  0  0  0  0  0  0  0  0  0  0  0
    0.7121   -0.4954    0.1060 S   0  0  0  0  0  0  0  0  0  0  0  0
    0.7681   -1.4928    1.1811 O   0  0  0  0  0  0  0  0  0  0  0  0
    0.8505   -1.0567   -1.2666 O   0  0  0  0  0  0  0  0  0  0  0  0
    2.0090    0.5263    0.0423 O   0  0  0  0  0  0  0  0  0  0  0  0
   -2.4715   -0.7168    0.2813 H   0  0  0  0  0  0  0  0  0  0  0  0
    2.2844    0.8926    0.9188 H   0  0  0  0  0  0  0  0  0  0  0  0
  1  2  1  0
  2  3  2  0
  2  4  1  0
  4  5  2  0
  4  6  2  0
  4  7  1  0
  1  8  1  0
  7  9  1  0
M  END
