
     RDKit          3D

 20 20  0  0  0  0  0  0  0  0999 V2000
   -1.9802    0.4743    0.4860 C   0  0  0  0  0  0  0  0  0  0  0  0
   -1.1005   -0.4676   -0.3580 C   0  0  0  0  0  0  0  0  0  0  0  0
    0.2202    0.1895   -0.8233 C   0  0  0  0  0  0  0  0  0  0  0  0
    1.1915    0.4555    0.3101 C   0  0  0  0  0  0  0  0  0  0  0  0
    2.2705   -0.3021    0.1919 C   0  0  0  0  0  0  0  0  0  0  0  0
    2.1336   -1.0632   -1.0202 C   0  0  0  0  0  0  0  0  0  0  0  0
    2.9717   -1.8833   -1.4769 O   0  0  0  0  0  0  0  0  0  0  0  0
    0.9383   -0.7420   -1.6378 O   0  0  0  0  0  0  0  0  0  0  0  0
    3.3627   -0.3230    1.0550 O   0  0  0  0  0  0  0  0  0  0  0  0
    1.0347    1.4170    1.3043 O   0  0  0  0  0  0  0  0  0  0  0  0
   -1.8204   -0.9304   -1.4742 O   0  0  0  0  0  0  0  0  0  0  0  0
   -3.2558   -0.0781    0.6730 O   0  0  0  0  0  0  0  0  0  0  0  0
   -2.0924    1.4507   -0.0318 H   0  0  0  0  0  0  0  0  0  0  0  0
   -1.5108    0.6571    1.4770 H   0  0  0  0  0  0  0  0  0  0  0  0
   -0.8504   -1.3530    0.2675 H   0  0  0  0  0  0  0  0  0  0  0  0
    0.0298    1.1223   -1.3970 H   0  0  0  0  0  0  0  0  0  0  0  0
    3.3885    0.2583    1.8843 H   0  0  0  0  0  0  0  0  0  0  0  0
    0.2701    2.0791    1.2772 H   0  0  0  0  0  0  0  0  0  0  0  0
   -2.0495   -0.1396   -2.0303 H   0  0  0  0  0  0  0  0  0  0  0  0
   -3.1514   -0.8214    1.3231 H   0  0  0  0  0  0  0  0  0  0  0  0
  1  2  1  0
  2  3  1  0
  3  4  1  0
  4  5  2  0
  5  6  1  0
  6  7  2  0
  6  8  1  0
  5  9  1  0
  4 10  1  0
  2 11  1  0
  1 12  1  0
  8  3  1  0
  1 13  1  0
  1 14  1  0
  2 15  1  0
  3 16  1  0
  9 17  1  0
 10 18  1  0
 11 19  1  0
 12 20  1  0
M  END
