
     RDKit          3D

  9  8  0  0  0  0  0  0  0  0999 V2000
   -0.9303    0.1797   -0.1157 C   0  0  0  0  0  0  0  0  0  0  0  0
    0.4905   -0.3444   -0.1843 C   0  0  0  0  0  0  0  0  0  0  0  0
    1.3963    0.5984    0.2610 O   0  0  0  0  0  0  0  0  0  0  0  0
   -0.9033    1.1315    0.4679 H   0  0  0  0  0  0  0  0  0  0  0  0
   -1.3809    0.3167   -1.1157 H   0  0  0  0  0  0  0  0  0  0  0  0
   -1.5915   -0.5621    0.3979 H   0  0  0  0  0  0  0  0  0  0  0  0
    0.7336   -0.5513   -1.2577 H   0  0  0  0  0  0  0  0  0  0  0  0
    0.5926   -1.3329    0.3264 H   0  0  0  0  0  0  0  0  0  0  0  0
    1.5931    0.5644    1.2201 H   0  0  0  0  0  0  0  0  0  0  0  0
  1  2  1  0
  2  3  1  0
  1  4  1  0
  1  5  1  0
  1  6  1  0
  2  7  1  0
  2  8  1  0
  3  9  1  0
M  END
