
     RDKit          3D

  9  8  0  0  0  0  0  0  0  0999 V2000
    1.8829    0.2058    0.6609 O   0  0  0  0  0  0  0  0  0  0  0  0
    0.7789   -0.8590    0.1980 S   0  0  0  0  0  0  0  0  0  0  0  0
    1.2391   -1.5010   -1.0172 O   0  0  0  0  0  0  0  0  0  0  0  0
   -1.0744   -0.1049    0.2365 S   0  0  0  0  0  0  0  0  0  0  0  0
   -1.4660   -0.3733    1.6329 O   0  0  0  0  0  0  0  0  0  0  0  0
   -1.9767   -0.9587   -0.5540 O   0  0  0  0  0  0  0  0  0  0  0  0
   -1.4115    1.3718   -0.4019 O   0  0  0  0  0  0  0  0  0  0  0  0
    2.6098    0.4949    0.0600 H   0  0  0  0  0  0  0  0  0  0  0  0
   -0.5820    1.7244   -0.8152 H   0  0  0  0  0  0  0  0  0  0  0  0
  1  2  1  0
  2  3  2  0
  2  4  1  0
  4  5  2  0
  4  6  2  0
  4  7  1  0
  1  8  1  0
  7  9  1  0
M  END
