
     RDKit          3D

  3  2  0  0  0  0  0  0  0  0999 V2000
   -0.0045   -0.1504    0.0000 C   0  0  0  0  0  0  0  0  0  0  0  0
   -1.1747    0.2281    0.0000 O   0  0  0  0  0  0  0  0  0  0  0  0
    1.1792   -0.5421    0.0000 O   0  0  0  0  0  0  0  0  0  0  0  0
  1  2  2  0
  1  3  2  0
M  END
