
     RDKit          3D

  9  8  0  0  0  0  0  0  0  0999 V2000
    1.9962    0.4622   -0.4630 O   0  0  0  0  0  0  0  0  0  0  0  0
    0.9865   -0.7551   -0.2336 S   0  0  0  0  0  0  0  0  0  0  0  0
    1.4188   -1.5511    0.8992 O   0  0  0  0  0  0  0  0  0  0  0  0
   -0.9524   -0.2282   -0.2072 S   0  0  0  0  0  0  0  0  0  0  0  0
   -1.6678   -1.5279   -0.2200 O   0  0  0  0  0  0  0  0  0  0  0  0
   -1.2173    0.1491   -1.6159 O   0  0  0  0  0  0  0  0  0  0  0  0
   -1.5273    0.7710    0.9537 O   0  0  0  0  0  0  0  0  0  0  0  0
    2.4158    0.9651    0.2655 H   0  0  0  0  0  0  0  0  0  0  0  0
   -1.4524    1.7150    0.6213 H   0  0  0  0  0  0  0  0  0  0  0  0
  1  2  1  0
  2  3  2  0
  2  4  1  0
  4  5  2  0
  4  6  2  0
  4  7  1  0
  1  8  1  0
  7  9  1  0
M  END
