
     RDKit          3D

  9  8  0  0  0  0  0  0  0  0999 V2000
    2.2101   -0.1573    0.5130 O   0  0  0  0  0  0  0  0  0  0  0  0
    1.1186   -0.0424   -0.7085 S   0  0  0  0  0  0  0  0  0  0  0  0
    1.2295    1.3365   -1.1380 O   0  0  0  0  0  0  0  0  0  0  0  0
   -0.7571   -0.5390   -0.1518 S   0  0  0  0  0  0  0  0  0  0  0  0
   -0.9005   -1.5637    0.9000 O   0  0  0  0  0  0  0  0  0  0  0  0
   -1.2563   -1.1761   -1.4046 O   0  0  0  0  0  0  0  0  0  0  0  0
   -1.7489    0.6185    0.4994 O   0  0  0  0  0  0  0  0  0  0  0  0
    1.7447    0.0039    1.3893 H   0  0  0  0  0  0  0  0  0  0  0  0
   -1.6401    1.5197    0.1013 H   0  0  0  0  0  0  0  0  0  0  0  0
  1  2  1  0
  2  3  2  0
  2  4  1  0
  4  5  2  0
  4  6  2  0
  4  7  1  0
  1  8  1  0
  7  9  1  0
M  END
